<?xml version="1.0" encoding="UTF-8"?>

<!-- generated on 2022-09-23 09:37:54 by Eclipse SUMO netconvert Version 1.14.1
<configuration xmlns:xsi="http://www.w3.org/2001/XMLSchema-instance" xsi:noNamespaceSchemaLocation="http://sumo.dlr.de/xsd/netconvertConfiguration.xsd">

    <input>
        <sumo-net-file value="grid.net.xml"/>
    </input>

    <output>
        <plain-output-prefix value="plain"/>
    </output>

    <processing>
        <geometry.min-radius.fix.railways value="false"/>
        <geometry.max-grade.fix value="false"/>
        <offset.disable-normalization value="true"/>
        <lefthand value="false"/>
    </processing>

    <junctions>
        <no-turnarounds value="true"/>
        <junctions.corner-detail value="5"/>
        <junctions.limit-turn-speed value="5.5"/>
        <rectangular-lane-cut value="false"/>
    </junctions>

    <pedestrian>
        <walkingareas value="false"/>
    </pedestrian>

</configuration>
-->

<nodes version="1.9" xmlns:xsi="http://www.w3.org/2001/XMLSchema-instance" xsi:noNamespaceSchemaLocation="http://sumo.dlr.de/xsd/nodes_file.xsd">
    <location netOffset="0.00,0.00" convBoundary="0.00,0.00,2000.00,4000.00" origBoundary="0.00,0.00,2000.00,4000.00" projParameter="!"/>

    <node id="A0" x="0.00" y="0.00" type="priority"/>
    <node id="A1" x="0.00" y="1000.00" type="priority"/>
    <node id="A2" x="0.00" y="2000.00" type="priority"/>
    <node id="A3" x="0.00" y="3000.00" type="priority"/>
    <node id="A4" x="0.00" y="4000.00" type="priority"/>
    <node id="B0" x="500.00" y="0.00" type="priority"/>
    <node id="B1" x="500.00" y="1000.00" type="priority"/>
    <node id="B2" x="500.00" y="2000.00" type="priority"/>
    <node id="B3" x="500.00" y="3000.00" type="priority"/>
    <node id="B4" x="500.00" y="4000.00" type="priority"/>
    <node id="C0" x="1000.00" y="0.00" type="priority"/>
    <node id="C1" x="1000.00" y="1000.00" type="priority"/>
    <node id="C2" x="1000.00" y="2000.00" type="priority"/>
    <node id="C3" x="1000.00" y="3000.00" type="priority"/>
    <node id="C4" x="1000.00" y="4000.00" type="priority"/>
    <node id="D0" x="1500.00" y="0.00" type="priority"/>
    <node id="D1" x="1500.00" y="1000.00" type="priority"/>
    <node id="D2" x="1500.00" y="2000.00" type="priority"/>
    <node id="D3" x="1500.00" y="3000.00" type="priority"/>
    <node id="D4" x="1500.00" y="4000.00" type="priority"/>
    <node id="E0" x="2000.00" y="0.00" type="priority"/>
    <node id="E1" x="2000.00" y="1000.00" type="priority"/>
    <node id="E2" x="2000.00" y="2000.00" type="priority"/>
    <node id="E3" x="2000.00" y="3000.00" type="priority"/>
    <node id="E4" x="2000.00" y="4000.00" type="priority"/>
</nodes>
